data_image0
_chemical_formula_structural       Cu12H24C72O48
_chemical_formula_sum              "Cu12 H24 C72 O48"
_cell_length_a       18.5698
_cell_length_b       18.5698
_cell_length_c       18.5698
_cell_angle_alpha    60
_cell_angle_beta     60
_cell_angle_gamma    60

_space_group_name_H-M_alt    "P 1"
_space_group_IT_number       1

loop_
  _space_group_symop_operation_xyz
  'x, y, z'

loop_
  _atom_site_type_symbol
  _atom_site_label
  _atom_site_symmetry_multiplicity
  _atom_site_fract_x
  _atom_site_fract_y
  _atom_site_fract_z
  _atom_site_occupancy
  Cu  Cu1       1.0  0.43273  0.56727  0.00000  1.0000
  Cu  Cu2       1.0  0.56727  0.43273  0.00000  1.0000
  Cu  Cu3       1.0  0.00000  0.00000  0.43273  1.0000
  Cu  Cu4       1.0  0.00000  1.00000  0.56727  1.0000
  Cu  Cu5       1.0  0.43273  0.00000  0.00000  1.0000
  Cu  Cu6       1.0  0.56727  0.00000  0.00000  1.0000
  Cu  Cu7       1.0  0.00000  0.43273  0.56727  1.0000
  Cu  Cu8       1.0  0.00000  0.56727  0.43273  1.0000
  Cu  Cu9       1.0  0.43273  1.00000  0.56727  1.0000
  Cu  Cu10      1.0  0.56727  0.00000  0.43273  1.0000
  Cu  Cu11      1.0  0.00000  0.56727  0.00000  1.0000
  Cu  Cu12      1.0  0.00000  0.43273  0.00000  1.0000
  H   H1        1.0  0.48820  0.27040  0.97100  1.0000
  H   H2        1.0  0.27040  0.48820  0.27040  1.0000
  H   H3        1.0  0.97100  0.27040  0.48820  1.0000
  H   H4        1.0  0.27040  0.97100  0.27040  1.0000
  H   H5        1.0  0.48820  0.97100  0.27040  1.0000
  H   H6        1.0  0.27040  0.27040  0.97100  1.0000
  H   H7        1.0  0.97100  0.48820  0.27040  1.0000
  H   H8        1.0  0.27040  0.27040  0.48820  1.0000
  H   H9        1.0  0.48820  0.27040  0.27040  1.0000
  H   H10       1.0  0.27040  0.97100  0.48820  1.0000
  H   H11       1.0  0.97100  0.27040  0.27040  1.0000
  H   H12       1.0  0.27040  0.48820  0.97100  1.0000
  H   H13       1.0  0.72960  0.51180  0.02900  1.0000
  H   H14       1.0  0.51180  0.72960  0.72960  1.0000
  H   H15       1.0  0.72960  0.02900  0.51180  1.0000
  H   H16       1.0  0.02900  0.72960  0.72960  1.0000
  H   H17       1.0  0.02900  0.51180  0.72960  1.0000
  H   H18       1.0  0.72960  0.72960  0.02900  1.0000
  H   H19       1.0  0.51180  0.02900  0.72960  1.0000
  H   H20       1.0  0.72960  0.72960  0.51180  1.0000
  H   H21       1.0  0.72960  0.51180  0.72960  1.0000
  H   H22       1.0  0.02900  0.72960  0.51180  1.0000
  H   H23       1.0  0.72960  0.02900  0.72960  1.0000
  H   H24       1.0  0.51180  0.72960  0.02900  1.0000
  C   C1        1.0  0.38629  0.38629  0.97087  1.0000
  C   C2        1.0  0.43089  0.43089  0.97585  1.0000
  C   C3        1.0  0.38629  0.38629  0.25655  1.0000
  C   C4        1.0  0.43089  0.43089  0.16237  1.0000
  C   C5        1.0  0.97087  0.25655  0.38629  1.0000
  C   C6        1.0  0.97585  0.16237  0.43089  1.0000
  C   C7        1.0  0.25655  0.97087  0.38629  1.0000
  C   C8        1.0  0.16237  0.97585  0.43089  1.0000
  C   C9        1.0  0.38629  0.97087  0.25655  1.0000
  C   C10       1.0  0.43089  0.97585  0.16237  1.0000
  C   C11       1.0  0.38629  0.25655  0.97087  1.0000
  C   C12       1.0  0.43089  0.16237  0.97585  1.0000
  C   C13       1.0  0.97087  0.38629  0.38629  1.0000
  C   C14       1.0  0.97585  0.43089  0.43089  1.0000
  C   C15       1.0  0.25655  0.38629  0.38629  1.0000
  C   C16       1.0  0.16237  0.43089  0.43089  1.0000
  C   C17       1.0  0.38629  0.25655  0.38629  1.0000
  C   C18       1.0  0.43089  0.16237  0.43089  1.0000
  C   C19       1.0  0.38629  0.97087  0.38629  1.0000
  C   C20       1.0  0.43089  0.97585  0.43089  1.0000
  C   C21       1.0  0.97087  0.38629  0.25655  1.0000
  C   C22       1.0  0.97585  0.43089  0.16237  1.0000
  C   C23       1.0  0.25655  0.38629  0.97087  1.0000
  C   C24       1.0  0.16237  0.43089  0.97585  1.0000
  C   C25       1.0  0.61371  0.61371  0.02913  1.0000
  C   C26       1.0  0.56911  0.56911  0.02415  1.0000
  C   C27       1.0  0.61371  0.61371  0.74345  1.0000
  C   C28       1.0  0.56911  0.56911  0.83763  1.0000
  C   C29       1.0  0.74345  0.02913  0.61371  1.0000
  C   C30       1.0  0.83763  0.02415  0.56911  1.0000
  C   C31       1.0  0.02913  0.74345  0.61371  1.0000
  C   C32       1.0  0.02415  0.83763  0.56911  1.0000
  C   C33       1.0  0.02913  0.61371  0.74345  1.0000
  C   C34       1.0  0.02415  0.56911  0.83763  1.0000
  C   C35       1.0  0.74345  0.61371  0.02913  1.0000
  C   C36       1.0  0.83763  0.56911  0.02415  1.0000
  C   C37       1.0  0.61371  0.02913  0.61371  1.0000
  C   C38       1.0  0.56911  0.02415  0.56911  1.0000
  C   C39       1.0  0.61371  0.74345  0.61371  1.0000
  C   C40       1.0  0.56911  0.83763  0.56911  1.0000
  C   C41       1.0  0.74345  0.61371  0.61371  1.0000
  C   C42       1.0  0.83763  0.56911  0.56911  1.0000
  C   C43       1.0  0.02913  0.61371  0.61371  1.0000
  C   C44       1.0  0.02415  0.56911  0.56911  1.0000
  C   C45       1.0  0.61371  0.02913  0.74345  1.0000
  C   C46       1.0  0.56911  0.02415  0.83763  1.0000
  C   C47       1.0  0.61371  0.74345  0.02913  1.0000
  C   C48       1.0  0.56911  0.83763  0.02415  1.0000
  C   C49       1.0  0.42909  0.29999  0.97093  1.0000
  C   C50       1.0  0.29999  0.42909  0.29999  1.0000
  C   C51       1.0  0.97093  0.29999  0.42909  1.0000
  C   C52       1.0  0.29999  0.97093  0.29999  1.0000
  C   C53       1.0  0.42909  0.97093  0.29999  1.0000
  C   C54       1.0  0.29999  0.29999  0.97093  1.0000
  C   C55       1.0  0.97093  0.42909  0.29999  1.0000
  C   C56       1.0  0.29999  0.29999  0.42909  1.0000
  C   C57       1.0  0.42909  0.29999  0.29999  1.0000
  C   C58       1.0  0.29999  0.97093  0.42909  1.0000
  C   C59       1.0  0.97093  0.29999  0.29999  1.0000
  C   C60       1.0  0.29999  0.42909  0.97093  1.0000
  C   C61       1.0  0.70001  0.57091  0.02907  1.0000
  C   C62       1.0  0.57091  0.70001  0.70001  1.0000
  C   C63       1.0  0.70001  0.02907  0.57091  1.0000
  C   C64       1.0  0.02907  0.70001  0.70001  1.0000
  C   C65       1.0  0.02907  0.57091  0.70001  1.0000
  C   C66       1.0  0.70001  0.70001  0.02907  1.0000
  C   C67       1.0  0.57091  0.02907  0.70001  1.0000
  C   C68       1.0  0.70001  0.70001  0.57091  1.0000
  C   C69       1.0  0.70001  0.57091  0.70001  1.0000
  C   C70       1.0  0.02907  0.70001  0.57091  1.0000
  C   C71       1.0  0.70001  0.02907  0.70001  1.0000
  C   C72       1.0  0.57091  0.70001  0.02907  1.0000
  O   O1        1.0  0.38762  0.50792  0.97928  1.0000
  O   O2        1.0  0.50792  0.38762  0.12518  1.0000
  O   O3        1.0  0.97928  0.12518  0.38762  1.0000
  O   O4        1.0  0.12518  0.97928  0.50792  1.0000
  O   O5        1.0  0.38762  0.97928  0.12518  1.0000
  O   O6        1.0  0.50792  0.12518  0.97928  1.0000
  O   O7        1.0  0.97928  0.38762  0.50792  1.0000
  O   O8        1.0  0.12518  0.50792  0.38762  1.0000
  O   O9        1.0  0.38762  0.12518  0.50792  1.0000
  O   O10       1.0  0.50792  0.97928  0.38762  1.0000
  O   O11       1.0  0.97928  0.50792  0.12518  1.0000
  O   O12       1.0  0.12518  0.38762  0.97928  1.0000
  O   O13       1.0  0.49208  0.61238  0.02072  1.0000
  O   O14       1.0  0.61238  0.49208  0.87482  1.0000
  O   O15       1.0  0.87482  0.02072  0.61238  1.0000
  O   O16       1.0  0.02072  0.87482  0.49208  1.0000
  O   O17       1.0  0.02072  0.61238  0.87482  1.0000
  O   O18       1.0  0.87482  0.49208  0.02072  1.0000
  O   O19       1.0  0.61238  0.02072  0.49208  1.0000
  O   O20       1.0  0.49208  0.87482  0.61238  1.0000
  O   O21       1.0  0.87482  0.61238  0.49208  1.0000
  O   O22       1.0  0.02072  0.49208  0.61238  1.0000
  O   O23       1.0  0.49208  0.02072  0.87482  1.0000
  O   O24       1.0  0.61238  0.87482  0.02072  1.0000
  O   O25       1.0  0.61238  0.49208  0.02072  1.0000
  O   O26       1.0  0.49208  0.61238  0.87482  1.0000
  O   O27       1.0  0.02072  0.87482  0.61238  1.0000
  O   O28       1.0  0.87482  0.02072  0.49208  1.0000
  O   O29       1.0  0.61238  0.02072  0.87482  1.0000
  O   O30       1.0  0.49208  0.87482  0.02072  1.0000
  O   O31       1.0  0.02072  0.61238  0.49208  1.0000
  O   O32       1.0  0.87482  0.49208  0.61238  1.0000
  O   O33       1.0  0.61238  0.87482  0.49208  1.0000
  O   O34       1.0  0.49208  0.02072  0.61238  1.0000
  O   O35       1.0  0.02072  0.49208  0.87482  1.0000
  O   O36       1.0  0.87482  0.61238  0.02072  1.0000
  O   O37       1.0  0.50792  0.38762  0.97928  1.0000
  O   O38       1.0  0.38762  0.50792  0.12518  1.0000
  O   O39       1.0  0.12518  0.97928  0.38762  1.0000
  O   O40       1.0  0.97928  0.12518  0.50792  1.0000
  O   O41       1.0  0.97928  0.38762  0.12518  1.0000
  O   O42       1.0  0.12518  0.50792  0.97928  1.0000
  O   O43       1.0  0.38762  0.97928  0.50792  1.0000
  O   O44       1.0  0.50792  0.12518  0.38762  1.0000
  O   O45       1.0  0.12518  0.38762  0.50792  1.0000
  O   O46       1.0  0.97928  0.50792  0.38762  1.0000
  O   O47       1.0  0.50792  0.97928  0.12518  1.0000
  O   O48       1.0  0.38762  0.12518  0.97928  1.0000
